Version 4
SHEET 1 1136 680
WIRE 448 -272 368 -272
WIRE 512 -272 448 -272
WIRE 768 -272 704 -272
WIRE 848 -272 768 -272
WIRE 368 -240 368 -272
WIRE 848 -240 848 -272
WIRE 608 -160 608 -176
WIRE 848 -160 848 -176
WIRE 368 -144 368 -160
WIRE 608 -144 608 -160
WIRE 608 -48 608 -64
FLAG 608 -48 0
FLAG 768 -272 Q
FLAG 848 -160 0
FLAG 368 -144 0
FLAG 448 -272 D
FLAG 608 -160 Clk
SYMBOL voltage 608 -160 R0
WINDOW 0 43 33 Left 2
WINDOW 3 -173 98 Left 2
WINDOW 123 0 0 Left 2
WINDOW 39 0 0 Left 2
SYMATTR InstName Clk
SYMATTR Value PULSE(0 1 500p 1p 1p 1000p 2000p 3)
SYMBOL cap 832 -240 R0
SYMATTR InstName C1
SYMATTR Value 50f
SYMBOL voltage 368 -256 R0
WINDOW 0 -45 19 Left 2
WINDOW 3 -264 98 Left 2
WINDOW 123 0 0 Left 2
WINDOW 39 0 0 Left 2
SYMATTR InstName D
SYMATTR Value PULSE(0 1 1000p 1p 1p 1000p 3000p 2)
SYMBOL Latch 608 -272 R0
SYMATTR InstName X1
TEXT 736 -344 Left 2 !.tran 5n
