Version 4
SHEET 1 1220 680
WIRE 160 -496 160 -512
WIRE 608 -496 608 -544
WIRE 160 -480 160 -496
WIRE 560 -416 432 -416
WIRE 608 -384 608 -400
WIRE 160 -368 160 -400
WIRE 560 -304 544 -304
WIRE 160 -272 160 -288
WIRE 400 -224 368 -224
WIRE 544 -224 544 -304
WIRE 544 -224 400 -224
WIRE 608 -192 608 -288
WIRE 608 -192 496 -192
WIRE 736 -192 608 -192
WIRE 912 -192 736 -192
WIRE 944 -192 912 -192
WIRE 160 -176 160 -192
WIRE 384 -160 368 -160
WIRE 432 -160 432 -416
WIRE 432 -160 384 -160
WIRE 912 -160 912 -192
WIRE 496 -128 496 -192
WIRE 736 -112 736 -192
WIRE 160 -80 160 -96
WIRE 912 -80 912 -96
WIRE 432 -48 432 -160
WIRE 448 -48 432 -48
WIRE 544 -32 544 -224
WIRE 688 -32 544 -32
WIRE 496 -16 496 -32
WIRE 160 16 160 0
FLAG 160 16 0
FLAG 160 -96 Vin1
FLAG 736 -64 0
FLAG 160 -368 0
FLAG 160 -496 VDD
FLAG 608 -448 VDD
FLAG 496 -16 0
FLAG 608 -544 VDD
FLAG 912 -192 Vout
FLAG 608 -336 VDD
FLAG 496 -80 0
FLAG 912 -80 0
FLAG 400 -224 Vin1
FLAG 384 -160 Vin2
FLAG 160 -176 0
FLAG 160 -288 Vin2
FLAG 736 -16 0
SYMBOL voltage 160 -96 R0
WINDOW 0 -72 21 Left 2
WINDOW 3 -173 98 Left 2
WINDOW 123 0 0 Left 2
WINDOW 39 0 0 Left 2
SYMATTR InstName Vin1
SYMATTR Value PULSE(0 1 500p 1p 1p 1000p)
SYMBOL voltage 160 -496 R0
WINDOW 123 0 0 Left 2
WINDOW 39 0 0 Left 2
SYMATTR InstName VDD
SYMATTR Value 1
SYMBOL pmos4 560 -496 R0
WINDOW 0 88 9 Right 2
WINDOW 3 168 20 Right 2
WINDOW 123 206 76 Right 2
SYMATTR InstName M3
SYMATTR Value P_50n
SYMATTR Value2 l=50n w=2u
SYMBOL nmos4 448 -128 R0
WINDOW 0 104 24 Right 2
WINDOW 3 179 41 Right 2
WINDOW 123 213 74 Right 2
SYMATTR InstName M1
SYMATTR Value N_50n
SYMATTR Value2 l=50n w=500n
SYMBOL nmos4 688 -112 R0
WINDOW 0 104 24 Right 2
WINDOW 3 179 41 Right 2
WINDOW 123 213 74 Right 2
SYMATTR InstName M2
SYMATTR Value N_50n
SYMATTR Value2 l=50n w=500n
SYMBOL pmos4 560 -384 R0
WINDOW 0 88 9 Right 2
WINDOW 3 168 20 Right 2
WINDOW 123 206 76 Right 2
SYMATTR InstName M4
SYMATTR Value P_50n
SYMATTR Value2 l=50n w=2u
SYMBOL cap 896 -160 R0
SYMATTR InstName C1
SYMATTR Value 50f
SYMBOL voltage 160 -288 R0
WINDOW 0 -72 21 Left 2
WINDOW 3 -46 108 Left 2
WINDOW 123 0 0 Left 2
WINDOW 39 0 0 Left 2
SYMATTR InstName Vin2
SYMATTR Value 0
TEXT 904 24 Left 2 !.tran 2n
TEXT 904 48 Left 2 !.include cmosedu_models.txt
