Version 4
SHEET 1 1652 680
WIRE -352 -304 -352 -352
WIRE 160 -304 160 -352
WIRE 656 -304 656 -352
WIRE 1136 -304 1136 -352
WIRE -352 -176 -352 -224
WIRE 160 -176 160 -224
WIRE 656 -176 656 -224
WIRE 1136 -176 1136 -224
WIRE 336 64 288 64
WIRE 624 64 496 64
WIRE 336 96 288 96
WIRE 624 96 496 96
WIRE 912 112 784 112
WIRE 1296 112 1104 112
WIRE 1424 112 1296 112
WIRE -352 128 -352 80
WIRE 336 128 288 128
WIRE 624 128 496 128
WIRE 336 160 288 160
WIRE 624 160 496 160
WIRE 1296 160 1296 112
WIRE -352 256 -352 208
WIRE 1296 272 1296 224
FLAG 1296 272 0
FLAG -352 -176 0
FLAG 160 -176 0
FLAG 656 -176 0
FLAG 1136 -176 0
FLAG -352 -352 A
IOPIN -352 -352 In
FLAG 160 -352 B
IOPIN 160 -352 In
FLAG 656 -352 C
IOPIN 656 -352 In
FLAG 1136 -352 D
IOPIN 1136 -352 In
FLAG -352 256 0
FLAG -352 80 CLK
IOPIN -352 80 In
FLAG 1008 208 CLK
IOPIN 1008 208 In
FLAG 416 224 CLK
IOPIN 416 224 In
FLAG 288 64 A
IOPIN 288 64 In
FLAG 288 96 B
IOPIN 288 96 In
FLAG 288 128 C
IOPIN 288 128 In
FLAG 288 160 D
IOPIN 288 160 In
FLAG 1424 112 Out
IOPIN 1424 112 Out
SYMBOL D_FF 1008 112 R0
SYMATTR InstName X1
SYMBOL cap 1280 160 R0
SYMATTR InstName C1
SYMATTR Value 50f
SYMBOL voltage -352 -320 R0
WINDOW 123 0 0 Left 0
WINDOW 39 0 0 Left 0
SYMATTR InstName VA
SYMATTR Value PULSE(0 1 80n 0.1n 0.1n 80n 160n)
SYMBOL voltage 160 -320 R0
SYMATTR InstName VB
SYMATTR Value PULSE(0 1 40n 0.1n 0.1n  40n 80n)
SYMBOL voltage 656 -320 R0
SYMATTR InstName VC
SYMATTR Value PULSE(0 1 20n 0.1n 0.1n 20n 40n)
SYMBOL voltage 1136 -320 R0
SYMATTR InstName VD
SYMATTR Value PULSE(0 1 10n 0.1n 0.1n 10n 20n)
SYMBOL voltage -352 112 R0
WINDOW 123 0 0 Left 0
WINDOW 39 0 0 Left 0
SYMATTR InstName Vclk
SYMATTR Value PULSE(0 1 0 1p 1p 1n 2n)
SYMBOL registre 416 96 R0
SYMATTR InstName X2
SYMBOL fonction-logique 704 112 R0
SYMATTR InstName X3
TEXT 1312 352 Left 2 !.include cmosedu_models.txt
TEXT 1312 400 Left 2 !.tran 160n
TEXT 624 24 Left 2 ;Fonction logique
TEXT 336 8 Left 2 ;Registre 4 bits
