Version 4
SHEET 1 1540 736
WIRE -464 16 -464 -32
WIRE 48 16 48 -32
WIRE 544 16 544 -32
WIRE 1024 16 1024 -32
WIRE -464 144 -464 96
WIRE 48 144 48 96
WIRE 544 144 544 96
WIRE 1024 144 1024 96
WIRE 224 384 176 384
WIRE 512 384 384 384
WIRE 224 416 176 416
WIRE 512 416 384 416
WIRE 800 432 672 432
WIRE 1184 432 992 432
WIRE 1312 432 1184 432
WIRE -464 448 -464 400
WIRE 224 448 176 448
WIRE 512 448 384 448
WIRE 224 480 176 480
WIRE 512 480 384 480
WIRE 1184 480 1184 432
WIRE -464 576 -464 528
WIRE 1184 592 1184 544
FLAG 1184 592 0
FLAG -464 144 0
FLAG 48 144 0
FLAG 544 144 0
FLAG 1024 144 0
FLAG -464 -32 A
IOPIN -464 -32 In
FLAG 48 -32 B
IOPIN 48 -32 In
FLAG 544 -32 C
IOPIN 544 -32 In
FLAG 1024 -32 D
IOPIN 1024 -32 In
FLAG -464 576 0
FLAG -464 400 CLK
IOPIN -464 400 In
FLAG 896 528 CLK
IOPIN 896 528 In
FLAG 304 544 CLK
IOPIN 304 544 In
FLAG 176 384 A
IOPIN 176 384 In
FLAG 176 416 B
IOPIN 176 416 In
FLAG 176 448 C
IOPIN 176 448 In
FLAG 176 480 D
IOPIN 176 480 In
FLAG 1312 432 Out
IOPIN 1312 432 Out
SYMBOL D_FF 896 432 R0
SYMATTR InstName X1
SYMBOL cap 1168 480 R0
SYMATTR InstName C1
SYMATTR Value 50f
SYMBOL voltage -464 0 R0
WINDOW 123 0 0 Left 0
WINDOW 39 0 0 Left 0
SYMATTR InstName VA1
SYMATTR Value PULSE(0 1 80n 0.1n 0.1n 80n 160n)
SYMBOL voltage 48 0 R0
SYMATTR InstName VB1
SYMATTR Value PULSE(0 1 40n 0.1n 0.1n  40n 80n)
SYMBOL voltage 544 0 R0
SYMATTR InstName VC1
SYMATTR Value PULSE(0 1 20n 0.1n 0.1n 20n 40n)
SYMBOL voltage 1024 0 R0
SYMATTR InstName VD1
SYMATTR Value PULSE(0 1 10n 0.1n 0.1n 10n 20n)
SYMBOL voltage -464 432 R0
WINDOW 123 0 0 Left 0
WINDOW 39 0 0 Left 0
SYMATTR InstName Vclk1
SYMATTR Value PULSE(0 1 0.18n 1p 1p 0.18n 0.36n)
SYMBOL registre 304 416 R0
SYMATTR InstName X2
SYMBOL fonction-logique 592 432 R0
SYMATTR InstName X3
TEXT 1200 672 Left 2 !.include cmosedu_models.txt
TEXT 1200 720 Left 2 !.tran 160n
TEXT 512 344 Left 2 ;Fonction logique
TEXT 224 328 Left 2 ;Registre 4 bits
