Version 4
SHEET 1 1820 680
WIRE 416 -640 416 -672
WIRE 416 -608 416 -640
WIRE 336 -544 256 -544
WIRE 608 -544 496 -544
WIRE 64 -400 0 -400
WIRE 256 -400 256 -544
WIRE 256 -400 224 -400
WIRE 288 -400 256 -400
WIRE 432 -400 416 -400
WIRE 608 -400 608 -544
WIRE 608 -400 560 -400
WIRE 704 -400 608 -400
WIRE 144 -272 144 -336
WIRE 144 -272 16 -272
WIRE 176 -272 144 -272
WIRE 352 -272 304 -272
WIRE 416 -272 352 -272
FLAG 704 -400 Q
IOPIN 704 -400 Out
FLAG 0 -400 D
IOPIN 0 -400 In
FLAG 16 -272 Clk
IOPIN 16 -272 In
FLAG 352 -272 Clk_b
FLAG 416 -640 Clk_b
SYMBOL TG 144 -400 R0
WINDOW 0 -18 -53 Left 2
SYMATTR InstName TG2
SYMBOL NOT 320 -432 R0
SYMATTR InstName X1
SYMBOL NOT 464 -432 R0
SYMATTR InstName X2
SYMBOL NOT 208 -304 R0
SYMATTR InstName X3
SYMBOL TG 416 -544 R180
WINDOW 0 -18 -51 Left 2
SYMATTR InstName TG1
