Version 4
SHEET 1 880 1160
WIRE 416 48 112 48
WIRE 16 144 -192 144
WIRE 416 240 112 240
WIRE 416 304 112 304
WIRE -192 400 -192 144
WIRE 16 400 -192 400
WIRE 416 496 112 496
WIRE -192 544 -192 400
WIRE -192 544 -368 544
WIRE 416 576 112 576
WIRE -192 672 -192 544
WIRE 16 672 -192 672
WIRE 416 768 112 768
WIRE 416 864 112 864
WIRE -192 960 -192 672
WIRE 16 960 -192 960
WIRE 416 1056 112 1056
FLAG -368 544 CLK
IOPIN -368 544 In
FLAG 416 48 X3
IOPIN 416 48 In
FLAG 416 304 X2
IOPIN 416 304 In
FLAG 416 576 X1
IOPIN 416 576 In
FLAG 416 864 X0
IOPIN 416 864 In
FLAG 416 240 Q3
IOPIN 416 240 Out
FLAG 416 496 Q2
IOPIN 416 496 Out
FLAG 416 768 Q1
IOPIN 416 768 Out
FLAG 416 1056 Q0
IOPIN 416 1056 Out
SYMBOL D_FF 112 144 R90
SYMATTR InstName X1
SYMBOL D_FF 112 400 R90
SYMATTR InstName X2
SYMBOL D_FF 112 672 R90
SYMATTR InstName X3
SYMBOL D_FF 112 960 R90
SYMATTR InstName X4
TEXT -232 1144 Left 2 !.include cmosedu_models.txt
