Version 4
SHEET 1 1136 680
WIRE 160 -336 160 -352
WIRE 624 -336 400 -336
WIRE 160 -320 160 -336
WIRE 400 -320 400 -336
WIRE 384 -272 272 -272
WIRE 528 -272 480 -272
WIRE 432 -240 432 -272
WIRE 432 -224 432 -240
WIRE 160 -208 160 -240
WIRE 272 -112 144 -112
WIRE 272 -112 272 -272
WIRE 368 -112 272 -112
WIRE 528 -112 528 -272
WIRE 528 -112 464 -112
WIRE 560 -112 528 -112
WIRE 672 -112 560 -112
WIRE 144 -64 144 -112
WIRE 176 -64 144 -64
WIRE 448 -16 448 -64
WIRE 448 -16 272 -16
WIRE 464 -16 448 -16
WIRE 624 -16 624 -336
WIRE 624 -16 592 -16
FLAG 560 -112 Vout
FLAG 256 -128 Vin
FLAG 416 -112 0
FLAG 160 -208 0
FLAG 160 -336 VDD
FLAG 432 -240 VDD
FLAG 672 -112 Out
IOPIN 672 -112 BiDir
FLAG 176 -64 In
IOPIN 176 -64 BiDir
FLAG 272 -16 En
IOPIN 272 -16 In
SYMBOL nmos4 368 -64 R270
WINDOW 0 70 70 VRight 2
WINDOW 3 99 70 VRight 2
WINDOW 123 99 -86 VRight 2
SYMATTR InstName M1
SYMATTR Value N_50n
SYMATTR Value2 l=50n w=500n
SYMBOL voltage 160 -336 R0
WINDOW 123 0 0 Left 2
WINDOW 39 0 0 Left 2
SYMATTR InstName VDD
SYMATTR Value 1
SYMBOL pmos4 480 -320 R90
WINDOW 0 71 -7 VRight 2
WINDOW 3 66 101 VRight 2
WINDOW 123 91 79 VRight 2
SYMATTR InstName M2
SYMATTR Value P_50n
SYMATTR Value2 l=50n w=1u
SYMBOL NOT 496 -48 R0
SYMATTR InstName X1
TEXT 456 64 Left 2 !.include cmosedu_models.txt
TEXT 320 -296 Left 2 ;20/1
TEXT 320 -96 Left 2 ;10/1
