Version 4
SHEET 1 880 680
WIRE 256 -16 160 -16
WIRE 448 -16 336 -16
WIRE 592 -16 528 -16
WIRE -16 80 -96 80
WIRE 160 80 160 -16
WIRE 160 80 64 80
WIRE 336 80 160 80
WIRE 592 80 592 -16
WIRE 592 80 416 80
WIRE 752 80 592 80
WIRE 752 128 752 80
WIRE 592 192 592 80
WIRE -96 208 -96 80
WIRE 160 208 160 80
WIRE 752 272 752 208
WIRE -96 432 -96 288
WIRE 160 432 160 288
WIRE 160 432 -96 432
WIRE 592 432 592 272
WIRE 592 432 160 432
WIRE 752 432 752 352
WIRE 752 432 592 432
WIRE 160 512 160 432
FLAG 160 512 0
FLAG 160 80 a
FLAG 592 80 b
SYMBOL current 592 272 R180
WINDOW 0 24 80 Left 2
WINDOW 3 24 0 Left 2
SYMATTR InstName I1
SYMATTR Value 2A
SYMBOL voltage -96 192 R0
SYMATTR InstName V1
SYMATTR Value 2V
SYMBOL res 352 -32 R90
WINDOW 0 0 56 VBottom 2
WINDOW 3 32 56 VTop 2
SYMATTR InstName R2
SYMATTR Value 4
SYMBOL res 544 -32 R90
WINDOW 0 0 56 VBottom 2
WINDOW 3 32 56 VTop 2
SYMATTR InstName R3
SYMATTR Value 2
SYMBOL res 432 64 R90
WINDOW 0 0 56 VBottom 2
WINDOW 3 32 56 VTop 2
SYMATTR InstName R4
SYMATTR Value 6
SYMBOL res 176 304 R180
WINDOW 0 36 76 Left 2
WINDOW 3 36 40 Left 2
SYMATTR InstName R5
SYMATTR Value 2
SYMBOL res 80 64 R90
WINDOW 0 0 56 VBottom 2
WINDOW 3 32 56 VTop 2
SYMATTR InstName R1
SYMATTR Value 2
SYMBOL res 736 112 R0
SYMATTR InstName R6
SYMATTR Value 2
SYMBOL res 736 256 R0
SYMATTR InstName R7
SYMATTR Value 2
TEXT 680 -24 Left 2 !.op
