Version 4
SHEET 1 880 680
WIRE 256 160 0 160
WIRE 416 160 256 160
WIRE 576 160 416 160
WIRE 576 208 576 160
WIRE 416 256 416 160
WIRE 0 272 0 160
WIRE 256 272 256 160
WIRE 576 336 576 288
WIRE 0 464 0 352
WIRE 256 464 256 352
WIRE 256 464 0 464
WIRE 416 464 416 336
WIRE 416 464 256 464
WIRE 576 464 576 416
WIRE 576 464 416 464
WIRE 256 528 256 464
FLAG 256 528 0
SYMBOL current 256 352 R180
WINDOW 0 24 80 Left 2
WINDOW 3 24 0 Left 2
WINDOW 123 0 0 Left 0
WINDOW 39 0 0 Left 0
SYMATTR InstName I1
SYMATTR Value 1
SYMBOL voltage 0 256 R0
WINDOW 123 0 0 Left 0
WINDOW 39 0 0 Left 0
SYMATTR InstName V1
SYMATTR Value 2
SYMBOL res 560 192 R0
SYMATTR InstName R2
SYMATTR Value 15
SYMBOL res 560 320 R0
SYMATTR InstName R3
SYMATTR Value 5
SYMBOL res 432 352 R180
WINDOW 0 36 76 Left 2
WINDOW 3 36 40 Left 2
SYMATTR InstName R1
SYMATTR Value 20
TEXT 584 120 Left 2 !.op
