Version 4
SHEET 1 1136 680
WIRE 368 240 352 240
WIRE 368 256 368 240
WIRE 368 272 352 272
WIRE 368 304 368 288
WIRE 368 304 352 304
FLAG 592 272 Out
IOPIN 592 272 Out
FLAG 352 240 In1
IOPIN 352 240 In
FLAG 352 272 In2
IOPIN 352 272 In
FLAG 352 304 In3
IOPIN 352 304 In
SYMBOL NOT 496 240 R0
SYMATTR InstName X2
SYMBOL NAND3 416 208 R0
SYMATTR InstName X1
