Version 4
SHEET 1 1136 680
WIRE 384 240 368 240
WIRE 384 256 384 240
WIRE 384 272 368 272
WIRE 512 272 496 272
WIRE 656 272 640 272
WIRE 384 304 384 288
WIRE 384 304 368 304
FLAG 656 272 Out
IOPIN 656 272 Out
FLAG 368 240 In1
IOPIN 368 240 In
FLAG 368 272 In2
IOPIN 368 272 In
FLAG 368 304 In3
IOPIN 368 304 In
SYMBOL NOT 544 240 R0
SYMATTR InstName X2
SYMBOL NOR3 432 208 R0
SYMATTR InstName X1
